1
2
.dc V1 0 6 0.1{return}{return}
1
2
R3
I
